42

C                 -0.06399400    0.17978900   -1.60715000
C                 -1.07194500   -0.32574100   -2.44265400
C                 -0.47333700    0.97726800   -0.53002400
C                 -2.39764700   -0.05122700   -2.21304600
H                 -0.77623200   -0.95128700   -3.27841200
N                  1.26004000   -0.09610000   -1.83798700
C                 -1.79386600    1.27527600   -0.27385000
O                  0.46738200    1.49997500    0.31112100
C                 -2.80456300    0.76302300   -1.11609200
H                 -3.13723300   -0.48171200   -2.87363800
C                  2.14714400    0.40159600   -1.03513600
H                 -2.01404400    1.91803900    0.56682900
C                  1.78198300    1.24225800    0.10175200
N                 -4.12133100    1.03506500   -0.88717100
C                  3.57537200    0.13579100   -1.24083400
C                  2.68660200    1.77435100    0.95318300
C                 -4.56114400    1.76605500    0.29690100
C                 -5.17209700    0.61666700   -1.81059100
C                  4.52222600    0.68295300   -0.36113900
C                  4.00939500   -0.65918100   -2.30710600
C                  4.10603900    1.53646000    0.78634900
H                  2.36418700    2.39242200    1.78278800
C                 -4.55871600    3.28115100    0.11110700
H                 -3.94315400    1.47783800    1.15102100
H                 -5.57286800    1.42326100    0.53017100
C                 -5.69945500   -0.78841100   -1.53352400
H                 -4.80945600    0.70086200   -2.83778000
H                 -5.98563800    1.34176700   -1.72100100
C                  5.88056900    0.42866700   -0.55761500
C                  5.35944700   -0.90381200   -2.49147100
H                  3.27136400   -1.07675300   -2.98182700
O                  4.93979500    2.01605100    1.55668900
H                 -4.91738000    3.77456800    1.01939700
H                 -5.21464600    3.57101800   -0.71537500
H                 -3.55426900    3.65419200   -0.10765300
H                 -4.90914900   -1.53727000   -1.63680800
H                 -6.50167500   -1.03716200   -2.23474300
H                 -6.10102300   -0.85846100   -0.51803000
C                  6.30138100   -0.35947500   -1.61493200
H                  6.58801700    0.86486100    0.13850300
H                  5.68527700   -1.52196000   -3.32197300
H                  7.35864100   -0.55406400   -1.76318500



