17

 N                 -2.81131000   -1.96248500    0.55379400
 C                 -1.43667900   -1.81024100    0.89220300
 O                 -3.63442500   -1.31047300    1.19383000
 O                 -3.11734700   -2.73240700   -0.35656800
 C                 -0.46570000   -2.51406900    0.21185500
 C                 -1.01093000   -0.93456600    1.93494000
 C                  0.90662600   -2.41849900    0.48382000
 H                 -0.79466100   -3.17771300   -0.57868200
 C                  0.38846500   -0.83833300    2.20941900
 N                 -1.64226600   -0.13517800    2.76569000
 C                  1.39091300   -1.58401100    1.48435300
 H                  1.60198800   -3.00922000   -0.10046300
 N                  0.57425300    0.00698900    3.18860200
 O                 -0.65517700    0.43193800    3.52476200
 N                  2.67904500   -1.43605400    1.80490300
 H                  2.96426700   -0.80772100    2.54181900
 H                  3.40088000   -1.93938000    1.30993900